Circuit: * C:\Users\assis\Documents\trabalho-eletronica-I\simulação\Draft2.asc

Limiting rise time of source v11 to 8.5e-005
Limiting fall time of source v11 to 8.5e-005
Limiting rise time of source v8 to 8.5e-005
Limiting fall time of source v8 to 8.5e-005
Limiting rise time of source v5 to 8.5e-005
Limiting fall time of source v5 to 8.5e-005
Limiting rise time of source v2 to 0.0001
Limiting fall time of source v2 to 0.0001
Limiting rise time of source v3 to 8.5e-005
Limiting fall time of source v3 to 8.5e-005
Direct Newton iteration for .op point succeeded.
Ignoring empty pin current: Ix(u1:1)
Ignoring empty pin current: Ix(u1:2)
Ignoring empty pin current: Ix(u2:1)
Ignoring empty pin current: Ix(u2:2)
Ignoring empty pin current: Ix(u3:1)
Ignoring empty pin current: Ix(u3:2)
Ignoring empty pin current: Ix(u4:1)
Ignoring empty pin current: Ix(u4:2)
Ignoring empty pin current: Ix(u1:1)
Ignoring empty pin current: Ix(u1:2)
Ignoring empty pin current: Ix(u2:1)
Ignoring empty pin current: Ix(u2:2)
Ignoring empty pin current: Ix(u3:1)
Ignoring empty pin current: Ix(u3:2)
Ignoring empty pin current: Ix(u4:1)
Ignoring empty pin current: Ix(u4:2)

Date: Fri Mar 11 21:15:19 2022
Total elapsed time: 0.094 seconds.

tnom = 27
temp = 27
method = modified trap
totiter = 2057
traniter = 2054
tranpoints = 1014
accept = 965
rejected = 49
matrix size = 31
fillins = 15
solver = Normal
Matrix Compiler1: 1.30 KB object code size  0.6/0.3/[0.3]
Matrix Compiler2: 1.98 KB object code size  0.3/0.5/[0.3]

