Circuit: * C:\Users\assis\OneDrive\Documentos\LTspiceXVII\Draft2.asc

Limiting rise time of source v2 to 0.00015
Limiting fall time of source v2 to 0.00015
Limiting rise time of source v3 to 0.0001
Limiting fall time of source v3 to 0.0001
WARNING: Less than two connections to node NC_01.  This node is used by S2.
WARNING: Less than two connections to node FOTODIODO_IN.  This node is used by R2.
Direct Newton iteration for .op point succeeded.

Date: Thu Mar 10 19:54:31 2022
Total elapsed time: 0.068 seconds.

tnom = 27
temp = 27
method = modified trap
totiter = 4555
traniter = 4543
tranpoints = 2253
accept = 2172
rejected = 81
matrix size = 44
fillins = 49
solver = Normal
Matrix Compiler1: 4.41 KB object code size  0.7/0.4/[0.3]
Matrix Compiler2: 4.06 KB object code size  0.3/0.4/[0.3]

