Circuit: * C:\Users\assis\Documents\trabalho-eletronica-I\simulação\Draft2.asc

Limiting rise time of source v2 to 0.0001
Limiting fall time of source v2 to 0.0001
Limiting rise time of source v3 to 0.00015
Limiting fall time of source v3 to 0.00015
WARNING: Less than two connections to node OUT.  This node is used by S2.
Direct Newton iteration for .op point succeeded.
Ignoring empty pin current: Ix(u1:1)
Ignoring empty pin current: Ix(u1:2)
Ignoring empty pin current: Ix(u1:1)
Ignoring empty pin current: Ix(u1:2)

Date: Fri Mar 11 19:29:12 2022
Total elapsed time: 0.187 seconds.

tnom = 27
temp = 27
method = modified trap
totiter = 4678
traniter = 4675
tranpoints = 2315
accept = 2220
rejected = 95
matrix size = 10
fillins = 1
solver = Normal
Matrix Compiler1: 274 bytes object code size  0.2/0.1/[0.1]
Matrix Compiler2: 544 bytes object code size  0.1/0.1/[0.1]

