Circuit: * E:\Trabalho Final Eletrônica I\simulação\Draft2.asc

Limiting rise time of source v2 to 5e-005
Limiting fall time of source v2 to 5e-005
Limiting rise time of source v3 to 0.0001
Limiting fall time of source v3 to 0.0001
WARNING: Less than two connections to node OUT.  This node is used by S2.
Direct Newton iteration for .op point succeeded.

Date: Thu Mar 10 21:00:09 2022
Total elapsed time: 0.064 seconds.

tnom = 27
temp = 27
method = modified trap
totiter = 4567
traniter = 4564
tranpoints = 2262
accept = 2169
rejected = 93
matrix size = 8
fillins = 0
solver = Normal
Matrix Compiler1: 156 bytes object code size  0.0/0.0/[0.0]
Matrix Compiler2: 404 bytes object code size  0.0/0.1/[0.0]

